
**** 06/19/23 13:45:00 ***** PSpice 22.1.0 (19 March 2023) **** ID# 0 ********

 ** Profile: "SCHEMATIC1-Trans"  [ C:\Jeonghyun\GIT\PMOD2BNC\22_1\IBIS_SIM-PSpiceFiles\SCHEMATIC1\Trans.sim ] 


 ****     CIRCUIT DESCRIPTION


******************************************************************************




** Creating circuit file "Trans.cir" 
** WARNING: THIS AUTOMATICALLY GENERATED FILE MAY BE OVERWRITTEN BY SUBSEQUENT SIMULATIONS

*Libraries: 
* Profile Libraries :
* Local Libraries :
* From [PSPICE NETLIST] section of C:\SPB_DATA\cdssetup\OrCAD_PSpice\22.1.0\PSpice.ini file:
.lib "C:\Jeonghyun\GIT\PMOD2BNC\IBIS\PSPICE\spartan7.lib" 
.lib "nom.lib" 

*Analysis directives: 
.TRAN  0 100ns 0 0.01n 
.OPTIONS ADVCONV
.PROBE64 V(alias(*)) I(alias(*)) W(alias(*)) D(alias(*)) NOISE(alias(*)) 
.INC "..\SCHEMATIC1.net" 



**** INCLUDING SCHEMATIC1.net ****
* source IBIS_SIM
.EXTERNAL OUTPUT OUTPUT
V_V1         N14567 0 3.3Vdc
R_R1         N14567 N14662  1k TC=0,0 
R_R2         0 N14655  1k TC=0,0 
V_V2         N14608 0 3.3Vdc
R_R3         0 OUTPUT  1k TC=0,0 
X_U1         N14608 OUTPUT N14662 SPARTAN7_SSTL15_R_S_HR_TYP PARAMS: 
+  R_PIN=0.3345 L_PIN=4.35E-09 C_PIN=7.2E-13

**** RESUMING Trans.cir ****
.END

ERROR(ORPSIM-15141): Less than 2 connections at node N14655.
