Circuit: * C:\Jeonghyun\GIT\PMOD2BNC\IBIS\Draft1.asc

Direct Newton iteration failed to find .op point.  (Use ".option noopiter" to skip.)
Starting Gmin stepping
Gmin = 10
Gmin = 1.07374
Gmin = 0.115292
Gmin = 0.0123794
Gmin = 0.00132923
vernier = 0.5
vernier = 0.25
vernier = 0.125
vernier = 0.0625
Gmin = 0.00100083
vernier = 0.03125
vernier = 0.015625
vernier = 0.0078125
vernier = 0.00390625
vernier = 0.00195312
Gmin = 0.00100083
vernier = 0.000976562
vernier = 0.000488281
Gmin = 0
Gmin stepping succeeded in finding the operating point.

Ignoring empty pin current: Ix(u1:ninp)
Ignoring empty pin current: Ix(u1:nenb)
Ignoring empty pin current: Ix(u1:ninp)
Ignoring empty pin current: Ix(u1:nenb)

Date: Mon Jun 19 02:25:44 2023
Total elapsed time: 2.682 seconds.

tnom = 27
temp = 27
method = modified trap
totiter = 125740
traniter = 124349
tranpoints = 60862
accept = 60601
rejected = 261
matrix size = 34
fillins = 18
solver = Normal
Avg thread counts: 2.0/1.0/2.0/1.0
Matrix Compiler1: 1.87 KB object code size  0.6/0.4/[0.3]
Matrix Compiler2: off  [0.2]/0.4/0.4

