Circuit: * C:\Jeonghyun\GIT\PMOD2BNC\IBIS\Draft2.asc

Direct Newton iteration for .op point succeeded.

Date: Tue Jun 20 21:57:42 2023
Total elapsed time: 0.147 seconds.

tnom = 27
temp = 27
method = modified trap
totiter = 4071
traniter = 4065
tranpoints = 2031
accept = 2027
rejected = 4
matrix size = 23
fillins = 3
solver = Normal
Avg thread counts: 1.4/1.9/1.9/1.4
Matrix Compiler1:      67 opcodes  0.6/[0.5]/0.8
Matrix Compiler2: off  [0.4]/0.9/0.6

