Circuit: * C:\Jeonghyun\GIT\PMOD2BNC\IBIS\SIMULATION_OUTPUT_HSTL_IN50.asc

Direct Newton iteration for .op point succeeded.
Ignoring empty pin current: Ix(u2:ninp)
Ignoring empty pin current: Ix(u2:nenb)
Ignoring empty pin current: Ix(u2:ninp)
Ignoring empty pin current: Ix(u2:nenb)

Date: Thu Jun 15 21:11:08 2023
Total elapsed time: 0.961 seconds.

tnom = 27
temp = 27
method = modified trap
totiter = 13117
traniter = 13108
tranpoints = 6232
accept = 6166
rejected = 66
matrix size = 36
fillins = 22
solver = Normal
Avg thread counts: 2.1/1.3/2.2/1.1
Matrix Compiler1:     125 opcodes  0.9/[0.4]/0.7
Matrix Compiler2: 2.75 KB object code size  0.6/0.9/[0.4]

